*Heading
** Job name: Column_ECB_Model Model name: Column_ECB_Model
** Generated by: Abaqus/CAE 6.14-1
*Preprint, echo=NO, model=NO, history=NO, contact=NO
**
** PARTS
**
*Part, name=Part-2
****Node
***      1,         -9.5,          10.,           0.
***      2,         -7.5,          10.,           0.
****Element, type=B31
***1, 1, 2
****Nset, nset=Set-2
*** 1, 2
****Elset, elset=Set-2
*** 1,
****Nset, nset=Set-3
*** 1, 2
****Elset, elset=Set-3
*** 1,
****Nset, nset=Set-4
*** 1, 2
****Elset, elset=Set-4
*** 1,
****Nset, nset=Set-5
*** 1, 2
****Elset, elset=Set-5
*** 1,
****Nset, nset=Set-6
*** 1, 2
****Elset, elset=Set-6
*** 1,
***** Section: Section-5  Profile: Profile-1
****Beam Section, elset=Set-5, material=Material-1, poisson = 0.3, temperature=GRADIENTS, section=CIRC
***10.
***0.,0.,-1.
***
***
*NODE,NSET=PR
1, -9.5,          10.,           0.
2, -7.5,          10.,           0.
*USER ELEMENT,NODES=2,TYPE=U1001,PROPERTIES=7,COORDINATES=3,VARIABLES=10
1,2,3,4           
*ELEMENT,TYPE=U1001,ELSET=UTRUSS
1, 1, 2
*UEL PROPERTY,ELSET=UTRUSS
2911000000,3868000000,0.00861,0.01891,0.8,0.05,925580000
*Nset, nset=Set-2                             
 1, 2
*Elset, elset=Set-2
 1,
*End Part
**  
*Part, name=wf
*Node
      1,  -397.399994,         368.,        3100.
      2,  -397.399994,         368.,           0.
      3,  -397.399994,         159.,           0.
      4,  -397.399994,         159.,        3100.
      5,  -397.399994,         577.,        3100.
      6,  -397.399994,         577.,           0.
      7,         -10.,         368.,        3100.
      8,         -10.,         368.,           0.
      9,         -10.,         159.,           0.
     10,         -10.,         159.,        3100.
     11,         -10.,         577.,        3100.
     12,         -10.,         577.,           0.
     13,  -397.399994,         368.,   3024.39014
     14,  -397.399994,         368.,   2948.78052
     15,  -397.399994,         368.,   2873.17065
     16,  -397.399994,         368.,   2797.56104
     17,  -397.399994,         368.,   2721.95117
     18,  -397.399994,         368.,   2646.34155
     19,  -397.399994,         368.,   2570.73169
     20,  -397.399994,         368.,   2495.12207
** ... 736 like lines cut
*Element, type=S4R
  1,   1,  13, 277,  96
  2,  13,  14, 278, 277
  3,  14,  15, 279, 278
  4,  15,  16, 280, 279
  5,  16,  17, 281, 280
  6,  17,  18, 282, 281
  7,  18,  19, 283, 282
  8,  19,  20, 284, 283
  9,  20,  21, 285, 284
 10,  21,  22, 286, 285
 11,  22,  23, 287, 286
 12,  23,  24, 288, 287
 13,  24,  25, 289, 288
 14,  25,  26, 290, 289
 15,  26,  27, 291, 290
 16,  27,  28, 292, 291
 17,  28,  29, 293, 292
 18,  29,  30, 294, 293
 19,  30,  31, 295, 294
 20,  31,  32, 296, 295
** ... 677 like lines cut
*Nset, nset=Set-1
   1,   2,   7,   8,  13,  14,  15,  16,  17,  18,  19,  20,  21,  22,  23,  24
  25,  26,  27,  28,  29,  30,  31,  32,  33,  34,  35,  36,  37,  38,  39,  40
  41,  42,  43,  44,  45,  46,  47,  48,  49,  50,  51,  52, 141, 142, 143, 144
 145, 146, 147, 148, 149, 150, 151, 152, 153, 154, 155, 156, 157, 158, 159, 160
 161, 162, 163, 164, 165, 166, 167, 168, 169, 170, 171, 172, 173, 174, 175, 176
 177, 178, 179, 180, 269, 270, 271, 272, 273, 274, 275, 276, 597, 598, 599, 600
 601, 602, 603, 604, 605, 606, 607, 608, 609, 610, 611, 612, 613, 614, 615, 616
 617, 618, 619, 620, 621, 622, 623, 624, 625, 626, 627, 628, 629, 630, 631, 632
 633, 634, 635, 636, 637, 638, 639, 640, 641, 642, 643, 644, 645, 646, 647, 648
 649, 650, 651, 652, 653, 654, 655, 656, 657, 658, 659, 660, 661, 662, 663, 664
 665, 666, 667, 668, 669, 670, 671, 672, 673, 674, 675, 676, 677, 678, 679, 680
 681, 682, 683, 684, 685, 686, 687, 688, 689, 690, 691, 692, 693, 694, 695, 696
 697, 698, 699, 700, 701, 702, 703, 704, 705, 706, 707, 708, 709, 710, 711, 712
 713, 714, 715, 716, 717, 718, 719, 720, 721, 722, 723, 724, 725, 726, 727, 728
 729, 730, 731, 732, 733, 734, 735, 736, 737, 738, 739, 740, 741, 742, 743, 744
 745, 746, 747, 748, 749, 750, 751, 752, 753, 754, 755, 756
*Elset, elset=Set-1, generate
 493,  697,    1
*Nset, nset=Set-2
   1,   2,   3,   4,   5,   6,   7,   8,   9,  10,  11,  12,  13,  14,  15,  16
  17,  18,  19,  20,  21,  22,  23,  24,  25,  26,  27,  28,  29,  30,  31,  32
  33,  34,  35,  36,  37,  38,  39,  40,  41,  42,  43,  44,  45,  46,  47,  48
  49,  50,  51,  52,  53,  54,  55,  56,  57,  58,  59,  60,  61,  62,  63,  64
  65,  66,  67,  68,  69,  70,  71,  72,  73,  74,  75,  76,  77,  78,  79,  80
  81,  82,  83,  84,  85,  86,  87,  88,  89,  90,  91,  92,  93,  94,  95,  96
  97,  98,  99, 100, 101, 102, 103, 104, 105, 106, 107, 108, 109, 110, 111, 112
 113, 114, 115, 116, 117, 118, 119, 120, 121, 122, 123, 124, 125, 126, 127, 128
 129, 130, 131, 132, 133, 134, 135, 136, 137, 138, 139, 140, 141, 142, 143, 144
 145, 146, 147, 148, 149, 150, 151, 152, 153, 154, 155, 156, 157, 158, 159, 160
 161, 162, 163, 164, 165, 166, 167, 168, 169, 170, 171, 172, 173, 174, 175, 176
 177, 178, 179, 180, 181, 182, 183, 184, 185, 186, 187, 188, 189, 190, 191, 192
 193, 194, 195, 196, 197, 198, 199, 200, 201, 202, 203, 204, 205, 206, 207, 208
 209, 210, 211, 212, 213, 214, 215, 216, 217, 218, 219, 220, 221, 222, 223, 224
 225, 226, 227, 228, 229, 230, 231, 232, 233, 234, 235, 236, 237, 238, 239, 240
 241, 242, 243, 244, 245, 246, 247, 248, 249, 250, 251, 252, 253, 254, 255, 256
 257, 258, 259, 260, 261, 262, 263, 264, 265, 266, 267, 268, 277, 278, 279, 280
 281, 282, 283, 284, 285, 286, 287, 288, 289, 290, 291, 292, 293, 294, 295, 296
 297, 298, 299, 300, 301, 302, 303, 304, 305, 306, 307, 308, 309, 310, 311, 312
 313, 314, 315, 316, 317, 318, 319, 320, 321, 322, 323, 324, 325, 326, 327, 328
** ... 17 like lines cut
*Elset, elset=Set-2, generate
   1,  492,    1
** Section: Section-3
*Shell Section, elset=Set-2, material=Material-2
67.6, 5
** Section: Section-2
*Shell Section, elset=Set-1, material=Material-2
42., 5
*End Part
**  
**
** ASSEMBLY
**
*Assembly, name=Assembly
**  
*Instance, name=Part-2-1, part=Part-2
        14.5,       -9.375,          10.
*End Instance
**  
*Instance, name=wf-1, part=wf
        373., 0.624999999999978,        213.7
        373., 0.624999999999978,        213.7, 373.577350279552, 0.0476497204479356, 214.277350279552, 119.999999109416
*End Instance
**  
*Node
      1,           5.,        0.625,          10.
*Node
      2,           5.,    -3099.375,          10.
*Nset, nset=Set-7, instance=Part-2-1
 2,
*Nset, nset=Set-8
 1,
*Nset, nset=Set-9
 2,
*Nset, nset=m_Set-1
 1,
*Nset, nset=m_Set-3
 2,
*Nset, nset=m_Set-5
 1,
*Nset, nset=s_Set-1, instance=wf-1
   2,   3,   6,   8,   9,  12,  53,  54, 139, 140, 181, 182, 267, 268, 273, 274
 275, 276
*Elset, elset=s_Set-1, instance=wf-1
  41,  82, 123, 124, 165, 206, 287, 328, 369, 370, 411, 452, 693, 694, 695, 696
 697,
*Nset, nset=s_Set-3, instance=wf-1
   1,   4,   5,   7,  10,  11,  95,  96,  97,  98, 223, 224, 225, 226, 269, 270
 271, 272
*Elset, elset=s_Set-3, instance=wf-1
   1,  42,  83, 164, 205, 246, 247, 288, 329, 410, 451, 492, 493, 494, 495, 496
 497,
*Nset, nset=s_Set-5, instance=Part-2-1
 1,
*Surface, type=NODE, name=s_Set-1_CNS_, internal
s_Set-1, 1.
*Surface, type=NODE, name=s_Set-3_CNS_, internal
s_Set-3, 1.
*Surface, type=NODE, name=s_Set-5_CNS_, internal
s_Set-5, 1.
** Constraint: Constraint-1
*MPC
BEAM, s_Set-1, m_Set-1
** Constraint: Constraint-2
*MPC
BEAM, s_Set-3, m_Set-3
** Constraint: Constraint-3
*MPC
BEAM, s_Set-5, m_Set-5
*End Assembly
*Amplitude, name=Amp-1
             0.,              0.,              1.,         0.00375,              2.,              0.,              3.,        -0.00375
             4.,              0.,              5.,         0.00375,              6.,              0.,              7.,        -0.00375
             8.,              0.,              9.,           0.005,             10.,              0.,             11.,          -0.005
            12.,              0.,             13.,           0.005,             14.,              0.,             15.,          -0.005
            16.,              0.,             17.,          0.0075,             18.,              0.,             19.,         -0.0075
            20.,              0.,             21.,          0.0075,             22.,              0.,             23.,         -0.0075
            24.,              0.,             25.,            0.01,             26.,              0.,             27.,           -0.01
            28.,              0.,             29.,            0.01,             30.,              0.,             31.,           -0.01
            32.,              0.,             33.,           0.015,             34.,              0.,             35.,          -0.015
            36.,              0.,             37.,           0.015,             38.,              0.,             39.,          -0.015
            40.,              0.,             41.,            0.02,             42.,              0.,             43.,           -0.02
            44.,              0.,             45.,            0.02,             46.,              0.,             47.,           -0.02
            48.,              0.,             49.,            0.0305,             50.,              0.,             51.,           -0.0308
            52.,              0.,             53.,            0.031,             54.,              0.,             55.,           -0.03
            56.,              0.,             57.,            0.04,             58.,              0.,             59.,           -0.0404
            60.,              0.,             61.,            0.04,             62.,              0.,             63.,           -0.042
            64.,              0.,             65.,            0.0512,             66.,              0.,             67.,           -0.0515
            68.,              0.,             69.,            0.0503,             70.,              0.,             71.,          -0.0507
            72.,              0.,             73.,            0.0646,             74.,              0.,
** 
** MATERIALS
** 
*Material, name=Material-1
*Elastic
 2.05001e+08, 0.3
*Material, name=Material-2
*Elastic
205000., 0.3
** ----------------------------------------------------------------
** 
** STEP: Step-1
** 
*Step, name=Step-1, nlgeom=YES, inc=1000000
*Static
0.01, 74., 1e-15, 0.01
** 
** BOUNDARY CONDITIONS
** 
** Name: BC-1 Type: Displacement/Rotation
*Boundary
Set-7, 1, 1
Set-7, 2, 2
Set-7, 3, 3
Set-7, 4, 4
Set-7, 5, 5
Set-7, 6, 6
** Name: BC-3 Type: Displacement/Rotation
*Boundary
Set-8, 1, 1
Set-8, 2, 2
Set-8, 3, 3
Set-8, 5, 5
Set-8, 6, 6
** Name: BC-4 Type: Displacement/Rotation
*Boundary, amplitude=Amp-1
Set-9, 1, 1
Set-9, 3, 3, 3100.
Set-9, 5, 5
Set-9, 6, 6
** 
** OUTPUT REQUESTS
** 
*Restart, write, frequency=0
** 
** FIELD OUTPUT: F-Output-1
** 
*Output, field, variable=PRESELECT
** 
** HISTORY OUTPUT: H-Output-1
** 
*Output, history, variable=PRESELECT
*End Step
